***** HSPICE -- C-2009.03-SP1 32-BIT (May 25 2009) linux ******
 Input File: uppg322.sp
 lic:
 lic: FLEXlm: v8.5b
 lic: USER:   frebro               HOSTNAME: remote3.student.chalmers.se
 lic: HOSTID: 001109ab3744         PID:      23301
 lic: Using FLEXlm license file:
 lic: 5290@synopsys1.lic.chalmers.se
 lic: Checkout 1 hspice
 lic: License/Maintenance for hspice will expire on 31-dec-2012/2011.09
 lic: FLOATING license(s) on SERVER synopsys1.lic.chalmers.se
 lic:
 Init: hspice initialization file: /chalmers/sw/sup/snp/hspice-2009.03-SP1/hspic
 init: begin read circuit files,  cpu clock=  1.00E-02
       option search   = /chalmers/sw/sup/snp/hspice-2009.03-SP1/hspice/p
                         arts/ad
       option search   = /chalmers/sw/sup/snp/hspice-2009.03-SP1/hspice/p
                         arts/behave
       option search   = /chalmers/sw/sup/snp/hspice-2009.03-SP1/hspice/p
                         arts/bjt
       option search   = /chalmers/sw/sup/snp/hspice-2009.03-SP1/hspice/p
                         arts/burr_brn
       option search   = /chalmers/sw/sup/snp/hspice-2009.03-SP1/hspice/p
                         arts/comlinear
       option search   = /chalmers/sw/sup/snp/hspice-2009.03-SP1/hspice/p
                         arts/dio
       option search   = /chalmers/sw/sup/snp/hspice-2009.03-SP1/hspice/p
                         arts/fet
       option search   = /chalmers/sw/sup/snp/hspice-2009.03-SP1/hspice/p
                         arts/lin_tech
       option search   = /chalmers/sw/sup/snp/hspice-2009.03-SP1/hspice/p
                         arts/pci
       option search   = /chalmers/sw/sup/snp/hspice-2009.03-SP1/hspice/p
                         arts/signet
       option search   = /chalmers/sw/sup/snp/hspice-2009.03-SP1/hspice/p
                         arts/ti
       option search   = /chalmers/sw/sup/snp/hspice-2009.03-SP1/hspice/p
                         arts/tline
       option search   = /chalmers/sw/sup/snp/hspice-2009.03-SP1/hspice/p
                         arts/xilinx
       option runlvl
       option post
 init: end read circuit files,  cpu clock=  1.00E-02 memory=    150 kb
 init: begin check errors,  cpu clock=  1.00E-02
 init: end check errors,  cpu clock=  1.00E-02 memory=    150 kb
 init: begin setup matrix, pivot=     0 cpu clock=  1.00E-02
       establish matrix -- done,  cpu clock=  1.00E-02 memory=    150 kb
       re-order matrix -- done,  cpu clock=  1.00E-02 memory=    150 kb
 init: end setup matrix,  cpu clock=  1.00E-02 memory=    160 kb
 sweep: voltage         voltage1         begin, #sweeps =  34
 voltage: vin             =    0.00E+00
 output: uppg322.sw0
 sweep: dc dc1    begin, #sweeps=  34 cpu clock=  1.00E-02
 sweep: dc dc1    end,  cpu clock=  1.00E-02 memory=    160 kb
 voltage: vin             =    1.00E-01
 output: uppg322.sw0
 sweep: dc dc2    begin, #sweeps=  34 cpu clock=  1.00E-02
 sweep: dc dc2    end,  cpu clock=  1.00E-02 memory=    160 kb
 voltage: vin             =    2.00E-01
 output: uppg322.sw0
 sweep: dc dc3    begin, #sweeps=  34 cpu clock=  1.00E-02
 sweep: dc dc3    end,  cpu clock=  1.00E-02 memory=    160 kb
 voltage: vin             =    3.00E-01
 output: uppg322.sw0
 sweep: dc dc4    begin, #sweeps=  34 cpu clock=  1.00E-02
 sweep: dc dc4    end,  cpu clock=  1.00E-02 memory=    160 kb
 voltage: vin             =    4.00E-01
 output: uppg322.sw0
 sweep: dc dc5    begin, #sweeps=  34 cpu clock=  1.00E-02
 sweep: dc dc5    end,  cpu clock=  1.00E-02 memory=    160 kb
 voltage: vin             =    5.00E-01
 output: uppg322.sw0
 sweep: dc dc6    begin, #sweeps=  34 cpu clock=  1.00E-02
 sweep: dc dc6    end,  cpu clock=  1.00E-02 memory=    160 kb
 voltage: vin             =    6.00E-01
 output: uppg322.sw0
 sweep: dc dc7    begin, #sweeps=  34 cpu clock=  1.00E-02
 sweep: dc dc7    end,  cpu clock=  1.00E-02 memory=    160 kb
 voltage: vin             =    7.00E-01
 output: uppg322.sw0
 sweep: dc dc8    begin, #sweeps=  34 cpu clock=  1.00E-02
 sweep: dc dc8    end,  cpu clock=  2.00E-02 memory=    160 kb
 voltage: vin             =    8.00E-01
 output: uppg322.sw0
 sweep: dc dc9    begin, #sweeps=  34 cpu clock=  2.00E-02
 sweep: dc dc9    end,  cpu clock=  2.00E-02 memory=    160 kb
 voltage: vin             =    9.00E-01
 output: uppg322.sw0
 sweep: dc dc10   begin, #sweeps=  34 cpu clock=  2.00E-02
 sweep: dc dc10   end,  cpu clock=  2.00E-02 memory=    160 kb
 voltage: vin             =    1.00E+00
 output: uppg322.sw0
 sweep: dc dc11   begin, #sweeps=  34 cpu clock=  2.00E-02
 sweep: dc dc11   end,  cpu clock=  2.00E-02 memory=    160 kb
 voltage: vin             =    1.10E+00
 output: uppg322.sw0
 sweep: dc dc12   begin, #sweeps=  34 cpu clock=  2.00E-02
 sweep: dc dc12   end,  cpu clock=  2.00E-02 memory=    160 kb
 voltage: vin             =    1.20E+00
 output: uppg322.sw0
 sweep: dc dc13   begin, #sweeps=  34 cpu clock=  2.00E-02
 sweep: dc dc13   end,  cpu clock=  2.00E-02 memory=    160 kb
 voltage: vin             =    1.30E+00
 output: uppg322.sw0
 sweep: dc dc14   begin, #sweeps=  34 cpu clock=  2.00E-02
 sweep: dc dc14   end,  cpu clock=  2.00E-02 memory=    160 kb
 voltage: vin             =    1.40E+00
 output: uppg322.sw0
 sweep: dc dc15   begin, #sweeps=  34 cpu clock=  2.00E-02
 sweep: dc dc15   end,  cpu clock=  2.00E-02 memory=    160 kb
 voltage: vin             =    1.50E+00
 output: uppg322.sw0
 sweep: dc dc16   begin, #sweeps=  34 cpu clock=  2.00E-02
 sweep: dc dc16   end,  cpu clock=  2.00E-02 memory=    160 kb
 voltage: vin             =    1.60E+00
 output: uppg322.sw0
 sweep: dc dc17   begin, #sweeps=  34 cpu clock=  2.00E-02
 sweep: dc dc17   end,  cpu clock=  2.00E-02 memory=    160 kb
 voltage: vin             =    1.70E+00
 output: uppg322.sw0
 sweep: dc dc18   begin, #sweeps=  34 cpu clock=  2.00E-02
 sweep: dc dc18   end,  cpu clock=  2.00E-02 memory=    160 kb
 voltage: vin             =    1.80E+00
 output: uppg322.sw0
 sweep: dc dc19   begin, #sweeps=  34 cpu clock=  2.00E-02
 sweep: dc dc19   end,  cpu clock=  2.00E-02 memory=    160 kb
 voltage: vin             =    1.90E+00
 output: uppg322.sw0
 sweep: dc dc20   begin, #sweeps=  34 cpu clock=  3.00E-02
 sweep: dc dc20   end,  cpu clock=  3.00E-02 memory=    160 kb
 voltage: vin             =    2.00E+00
 output: uppg322.sw0
 sweep: dc dc21   begin, #sweeps=  34 cpu clock=  3.00E-02
 sweep: dc dc21   end,  cpu clock=  3.00E-02 memory=    160 kb
 voltage: vin             =    2.10E+00
 output: uppg322.sw0
 sweep: dc dc22   begin, #sweeps=  34 cpu clock=  3.00E-02
 sweep: dc dc22   end,  cpu clock=  3.00E-02 memory=    160 kb
 voltage: vin             =    2.20E+00
 output: uppg322.sw0
 sweep: dc dc23   begin, #sweeps=  34 cpu clock=  3.00E-02
 sweep: dc dc23   end,  cpu clock=  3.00E-02 memory=    160 kb
 voltage: vin             =    2.30E+00
 output: uppg322.sw0
 sweep: dc dc24   begin, #sweeps=  34 cpu clock=  3.00E-02
 sweep: dc dc24   end,  cpu clock=  3.00E-02 memory=    160 kb
 voltage: vin             =    2.40E+00
 output: uppg322.sw0
 sweep: dc dc25   begin, #sweeps=  34 cpu clock=  3.00E-02
 sweep: dc dc25   end,  cpu clock=  3.00E-02 memory=    160 kb
 voltage: vin             =    2.50E+00
 output: uppg322.sw0
 sweep: dc dc26   begin, #sweeps=  34 cpu clock=  3.00E-02
 sweep: dc dc26   end,  cpu clock=  3.00E-02 memory=    160 kb
 voltage: vin             =    2.60E+00
 output: uppg322.sw0
 sweep: dc dc27   begin, #sweeps=  34 cpu clock=  3.00E-02
 sweep: dc dc27   end,  cpu clock=  3.00E-02 memory=    160 kb
 voltage: vin             =    2.70E+00
 output: uppg322.sw0
 sweep: dc dc28   begin, #sweeps=  34 cpu clock=  3.00E-02
 sweep: dc dc28   end,  cpu clock=  3.00E-02 memory=    160 kb
 voltage: vin             =    2.80E+00
 output: uppg322.sw0
 sweep: dc dc29   begin, #sweeps=  34 cpu clock=  3.00E-02
 sweep: dc dc29   end,  cpu clock=  3.00E-02 memory=    160 kb
 voltage: vin             =    2.90E+00
 output: uppg322.sw0
 sweep: dc dc30   begin, #sweeps=  34 cpu clock=  3.00E-02
 sweep: dc dc30   end,  cpu clock=  4.00E-02 memory=    160 kb
 voltage: vin             =    3.00E+00
 output: uppg322.sw0
 sweep: dc dc31   begin, #sweeps=  34 cpu clock=  4.00E-02
 sweep: dc dc31   end,  cpu clock=  4.00E-02 memory=    160 kb
 voltage: vin             =    3.10E+00
 output: uppg322.sw0
 sweep: dc dc32   begin, #sweeps=  34 cpu clock=  4.00E-02
 sweep: dc dc32   end,  cpu clock=  4.00E-02 memory=    160 kb
 voltage: vin             =    3.20E+00
 output: uppg322.sw0
 sweep: dc dc33   begin, #sweeps=  34 cpu clock=  4.00E-02
 sweep: dc dc33   end,  cpu clock=  4.00E-02 memory=    160 kb
 voltage: vin             =    3.30E+00
 output: uppg322.sw0
 sweep: dc dc34   begin, #sweeps=  34 cpu clock=  4.00E-02
 sweep: dc dc34   end,  cpu clock=  4.00E-02 memory=    160 kb
 sweep: voltage         voltage         1 end
>info:         ***** hspice job concluded
 Init: hspice initialization file: /chalmers/sw/sup/snp/hspice-2009.03-SP1/hspic
 lic: Release hspice token(s)
