***** HSPICE -- C-2009.03-SP1 32-BIT (May 25 2009) linux ******
 Input File: uppg332.sp
 lic:
 lic: FLEXlm: v8.5b
 lic: USER:   frebro               HOSTNAME: remote3.student.chalmers.se
 lic: HOSTID: 001109ab3744         PID:      29065
 lic: Using FLEXlm license file:
 lic: 5290@synopsys1.lic.chalmers.se
 lic: Checkout 1 hspice
 lic: License/Maintenance for hspice will expire on 31-dec-2012/2011.09
 lic: FLOATING license(s) on SERVER synopsys1.lic.chalmers.se
 lic:
 Init: hspice initialization file: /chalmers/sw/sup/snp/hspice-2009.03-SP1/hspic
 init: begin read circuit files,  cpu clock=  1.00E-02
       option search   = /chalmers/sw/sup/snp/hspice-2009.03-SP1/hspice/p
                         arts/ad
       option search   = /chalmers/sw/sup/snp/hspice-2009.03-SP1/hspice/p
                         arts/behave
       option search   = /chalmers/sw/sup/snp/hspice-2009.03-SP1/hspice/p
                         arts/bjt
       option search   = /chalmers/sw/sup/snp/hspice-2009.03-SP1/hspice/p
                         arts/burr_brn
       option search   = /chalmers/sw/sup/snp/hspice-2009.03-SP1/hspice/p
                         arts/comlinear
       option search   = /chalmers/sw/sup/snp/hspice-2009.03-SP1/hspice/p
                         arts/dio
       option search   = /chalmers/sw/sup/snp/hspice-2009.03-SP1/hspice/p
                         arts/fet
       option search   = /chalmers/sw/sup/snp/hspice-2009.03-SP1/hspice/p
                         arts/lin_tech
       option search   = /chalmers/sw/sup/snp/hspice-2009.03-SP1/hspice/p
                         arts/pci
       option search   = /chalmers/sw/sup/snp/hspice-2009.03-SP1/hspice/p
                         arts/signet
       option search   = /chalmers/sw/sup/snp/hspice-2009.03-SP1/hspice/p
                         arts/ti
       option search   = /chalmers/sw/sup/snp/hspice-2009.03-SP1/hspice/p
                         arts/tline
       option search   = /chalmers/sw/sup/snp/hspice-2009.03-SP1/hspice/p
                         arts/xilinx
       option runlvl
       option post
 init: end read circuit files,  cpu clock=  1.00E-02 memory=    150 kb
 init: begin check errors,  cpu clock=  1.00E-02
 init: end check errors,  cpu clock=  2.00E-02 memory=    150 kb
 init: begin setup matrix, pivot=     0 cpu clock=  2.00E-02
       establish matrix -- done,  cpu clock=  2.00E-02 memory=    150 kb
       re-order matrix -- done,  cpu clock=  2.00E-02 memory=    150 kb
 init: end setup matrix,  cpu clock=  2.00E-02 memory=    159 kb
 dcop: begin dcop,  cpu clock=  2.00E-02
 dcop: end dcop,  cpu clock=  2.00E-02 memory=    159 kb  tot_iter=       5
 output: uppg332.tr0
 sweep: tran tran0    begin, stop_t=  2.00E-06 #sweeps= 201 cpu clock=  2.00E-02
 tran: time= 2.5000E-07 tot_iter=      20 conv_iter=       8 cpu clock= 2.00E-02
 tran: time= 4.0000E-07 tot_iter=      28 conv_iter=      11 cpu clock= 2.00E-02
 tran: time= 6.0272E-07 tot_iter=      41 conv_iter=      16 cpu clock= 2.00E-02
 tran: time= 8.0698E-07 tot_iter=      53 conv_iter=      22 cpu clock= 2.00E-02
 tran: time= 1.0000E-06 tot_iter=      61 conv_iter=      26 cpu clock= 2.00E-02
 tran: time= 1.2500E-06 tot_iter=      76 conv_iter=      31 cpu clock= 2.00E-02
 tran: time= 1.4000E-06 tot_iter=      82 conv_iter=      34 cpu clock= 2.00E-02
 tran: time= 1.6027E-06 tot_iter=      95 conv_iter=      39 cpu clock= 2.00E-02
 tran: time= 1.8070E-06 tot_iter=     107 conv_iter=      45 cpu clock= 2.00E-02
 tran: time= 2.0000E-06 tot_iter=     115 conv_iter=      49 cpu clock= 2.00E-02
 sweep: tran tran0    end,  cpu clock=  2.00E-02 memory=    159 kb
>info:         ***** hspice job concluded
 Init: hspice initialization file: /chalmers/sw/sup/snp/hspice-2009.03-SP1/hspic
 lic: Release hspice token(s)
