Using: /usr/bin/time -p /chalmers/sw/sup/snp/hspice-2009.03-SP1/hspice/linux/hspice uppg133.sp
 ****** HSPICE -- C-2009.03-SP1 32-BIT (May 25 2009) linux ******               
  Copyright (C) 2009 Synopsys, Inc. All Rights Reserved.                        
  Unpublished-rights reserved under US copyright laws.
  This program is protected by law and is subject to the 
  terms and conditions of the license agreement from Synopsys.
  Use of this program is your acceptance to be bound by the 
  license agreement. HSPICE is the trademark of Synopsys, Inc.
  Input File: uppg133.sp                                                        
 lic:  
 lic: FLEXlm: v8.5b 
 lic: USER:   frebro               HOSTNAME: ce-pc17.ce.chalmers.se 
 lic: HOSTID: 001aa02acc75         PID:      12422 
 lic: Using FLEXlm license file: 
 lic: 5290@synopsys1.lic.chalmers.se 
 lic: Checkout 1 hspice 
 lic: License/Maintenance for hspice will expire on 31-dec-2012/2011.09 
 lic: FLOATING license(s) on SERVER synopsys1.lic.chalmers.se 
 lic:   
 Init: read install configuration file: /chalmers/sw/sup/snp/hspice-2009.03-SP1/hspice/meta.cfg
 Init: hspice initialization file: /chalmers/sw/sup/snp/hspice-2009.03-SP1/hspice/hspice.ini
 .option runlvl

 ***********************************************************************
 ** runlvl is invoked, you can disable it by:
      a) Add option runlvl=0 to your current simulation job.
      b) Copy $installdir/hspice.ini to your HOME directory and
         customize it by adding option runlvl=0, which disables
         it for all of your simulation jobs.
      c) Re-invoke $installdir/bin/config program and unselect the
         option runlvl setting in box 'hspice.ini' which disables
         it for whole group simulation jobs.

 ** runlvl is invoked, some options are ignored or automatically set:
      Options below are automatically set(user setting will overwrite them):
      if runlvl=[1|2|3|4|5|6],  .option bypass=2

      Options below are ignored, they are replaced by automated algorithms:
        lvltim    dvdt      ft    fast   trtol  absvar  relvar
          relq  chgtol    dvtr    imin    itl3    rmax

 ** runlvl is invoked, actual option value used by HSPICE are:
       runlvl= 3       bypass= 2      mbypass=   2.00   bytol= 100.00u
 ***********************************************************************

 
      
 *****************************************************************
 ******  option summary
 ******
 runlvl  = 3         bypass  = 2         
1****** HSPICE -- C-2009.03-SP1 32-BIT (May 25 2009) linux ******               
 ******  
 simulering av spanningsdelning over resistanser - uppgift 1.3.3

  ******  operating point information tnom=  25.000 temp=  25.000 *****
 ***** operating point status is voltage   simulation time is     0.     
    node    =voltage      node    =voltage

 +0:ut      =   2.4812  0:vdd     =   3.3000 


          ***** job concluded
1****** HSPICE -- C-2009.03-SP1 32-BIT (May 25 2009) linux ******               
 ******  
 simulering av spanningsdelning over resistanser - uppgift 1.3.3

  ******  job statistics summary tnom=  25.000 temp=  25.000 *****
 
 
 ******  Machine Information  ******
 CPU:
 model name	: AMD Athlon(tm) 64 X2 Dual Core Processor 3800+
 cpu MHz	: 1000.000
 
 OS:
 Linux version 2.6.39-1.el5.elrepo (mockbuild@Build64R5) (gcc version 4.1.2 2008
 0704 (Red Hat 4.1.2-50)) #1 SMP PREEMPT Fri Jun 3 19:17:28 EDT 2011


  ******  HSPICE Threads Information  ******
  Command Line Threads Count                  :     1
  Available CPU Count                         :     2
  Actual Model Evaluation(Load) Threads Count :     1
  Actual Solver Threads Count                 :     1


  ******  Circuit Statistics  ******
  # nodes       =       3 # elements   =       3
  # resistors   =       2 # capacitors =       0 # inductors   =       0
  # mutual_inds =       0 # vccs       =       0 # vcvs        =       0
  # cccs        =       0 # ccvs       =       0 # volt_srcs   =       1
  # curr_srcs   =       0 # diodes     =       0 # bjts        =       0
  # jfets       =       0 # mosfets    =       0 # U elements  =       0
  # T elements  =       0 # W elements =       0 # B elements  =       0
  # S elements  =       0 # P elements =       0 # va device   =       0


  ******  Runtime Statistics (seconds)  ******

  analysis           time    # points   tot. iter  conv.iter
  op point           0.00           1           4
  transient          0.00       10001          56          28 rev=         0
  readin             0.00
  errchk             0.00
  setup              0.01
  output             0.00


           total memory used           28  kbytes
           total cpu time            0.01 seconds
           total elapsed time        0.13 seconds
           job started at     15:16:32 01/23/2012
           job ended   at     15:16:32 01/23/2012


 Init: hspice initialization file: /chalmers/sw/sup/snp/hspice-2009.03-SP1/hspice/hspice.ini
 lic: Release hspice token(s) 
