***** HSPICE -- C-2009.03-SP1 32-BIT (May 25 2009) linux ******
 Input File: uppg133.sp
 lic:
 lic: FLEXlm: v8.5b
 lic: USER:   frebro               HOSTNAME: ce-pc17.ce.chalmers.se
 lic: HOSTID: 001aa02acc75         PID:      12422
 lic: Using FLEXlm license file:
 lic: 5290@synopsys1.lic.chalmers.se
 lic: Checkout 1 hspice
 lic: License/Maintenance for hspice will expire on 31-dec-2012/2011.09
 lic: FLOATING license(s) on SERVER synopsys1.lic.chalmers.se
 lic:
 Init: hspice initialization file: /chalmers/sw/sup/snp/hspice-2009.03-SP1/hspic
 init: begin read circuit files,  cpu clock=  1.00E-02
       option search   = /chalmers/sw/sup/snp/hspice-2009.03-SP1/hspice/p
                         arts/ad
       option search   = /chalmers/sw/sup/snp/hspice-2009.03-SP1/hspice/p
                         arts/behave
       option search   = /chalmers/sw/sup/snp/hspice-2009.03-SP1/hspice/p
                         arts/bjt
       option search   = /chalmers/sw/sup/snp/hspice-2009.03-SP1/hspice/p
                         arts/burr_brn
       option search   = /chalmers/sw/sup/snp/hspice-2009.03-SP1/hspice/p
                         arts/comlinear
       option search   = /chalmers/sw/sup/snp/hspice-2009.03-SP1/hspice/p
                         arts/dio
       option search   = /chalmers/sw/sup/snp/hspice-2009.03-SP1/hspice/p
                         arts/fet
       option search   = /chalmers/sw/sup/snp/hspice-2009.03-SP1/hspice/p
                         arts/lin_tech
       option search   = /chalmers/sw/sup/snp/hspice-2009.03-SP1/hspice/p
                         arts/pci
       option search   = /chalmers/sw/sup/snp/hspice-2009.03-SP1/hspice/p
                         arts/signet
       option search   = /chalmers/sw/sup/snp/hspice-2009.03-SP1/hspice/p
                         arts/ti
       option search   = /chalmers/sw/sup/snp/hspice-2009.03-SP1/hspice/p
                         arts/tline
       option search   = /chalmers/sw/sup/snp/hspice-2009.03-SP1/hspice/p
                         arts/xilinx
       option runlvl
       option post
 init: end read circuit files,  cpu clock=  1.00E-02 memory=     19 kb
 init: begin check errors,  cpu clock=  1.00E-02
 init: end check errors,  cpu clock=  1.00E-02 memory=     19 kb
 init: begin setup matrix, pivot=     0 cpu clock=  1.00E-02
       establish matrix -- done,  cpu clock=  1.00E-02 memory=     19 kb
       re-order matrix -- done,  cpu clock=  2.00E-02 memory=     19 kb
 init: end setup matrix,  cpu clock=  2.00E-02 memory=     27 kb
 dcop: begin dcop,  cpu clock=  2.00E-02
 dcop: end dcop,  cpu clock=  2.00E-02 memory=     27 kb  tot_iter=       4
 output: uppg133.tr0
 sweep: tran tran0    begin, stop_t=  1.00E-03 #sweeps=**** cpu clock=  2.00E-02
 tran: time= 1.3906E-04 tot_iter=      18 conv_iter=       9 cpu clock= 2.00E-02
 tran: time= 2.3906E-04 tot_iter=      22 conv_iter=      11 cpu clock= 2.00E-02
 tran: time= 3.3906E-04 tot_iter=      26 conv_iter=      13 cpu clock= 2.00E-02
 tran: time= 4.3906E-04 tot_iter=      30 conv_iter=      15 cpu clock= 2.00E-02
 tran: time= 5.3906E-04 tot_iter=      34 conv_iter=      17 cpu clock= 2.00E-02
 tran: time= 6.3906E-04 tot_iter=      38 conv_iter=      19 cpu clock= 2.00E-02
 tran: time= 7.3906E-04 tot_iter=      42 conv_iter=      21 cpu clock= 2.00E-02
 tran: time= 8.3906E-04 tot_iter=      46 conv_iter=      23 cpu clock= 2.00E-02
 tran: time= 9.3906E-04 tot_iter=      50 conv_iter=      25 cpu clock= 2.00E-02
 tran: time= 1.0000E-03 tot_iter=      54 conv_iter=      27 cpu clock= 2.00E-02
 sweep: tran tran0    end,  cpu clock=  2.00E-02 memory=     28 kb
>info:         ***** hspice job concluded
 Init: hspice initialization file: /chalmers/sw/sup/snp/hspice-2009.03-SP1/hspic
 lic: Release hspice token(s)
